*HEADING
C:\Users\ZHANJIE LI\Documents\RESEARCH\Abaqusmaker\abaqusmaker_final\abaqus_me_subs\abaqus_me 01-Mar-2011 15:15:46
*NODE,NSET=ALL
1,0.000000,2.500000,0.750000 
2,0.000000,2.500000,0.630000 
3,0.000000,2.500000,0.500000 
4,0.000000,2.500000,0.380000 
5,0.000000,2.500000,0.250000 
6,0.000000,2.480000,0.150000 
7,0.000000,2.430000,0.070000 
8,0.000000,2.350000,0.020000 
9,0.000000,2.250000,0.000000 
10,0.000000,1.750000,0.000000 
11,0.000000,1.250000,0.000000 
12,0.000000,0.750000,0.000000 
13,0.000000,0.250000,0.000000 
14,0.000000,0.150000,0.020000 
15,0.000000,0.070000,0.070000 
16,0.000000,0.020000,0.150000 
17,0.000000,0.000000,0.250000 
18,0.000000,0.000000,1.750000 
19,0.000000,0.000000,3.250000 
20,0.000000,0.000000,4.750000 
** ... 2977 like lines cut
*ELEMENT,TYPE=S9R5,ELSET=STRIP1
1,1,3,203,201,2,103,202,101,102 
2,201,203,403,401,202,303,402,301,302 
3,401,403,603,601,402,503,602,501,502 
4,601,603,803,801,602,703,802,701,702 
5,801,803,1003,1001,802,903,1002,901,902 
6,1001,1003,1203,1201,1002,1103,1202,1101,1102 
7,1201,1203,1403,1401,1202,1303,1402,1301,1302 
8,1401,1403,1603,1601,1402,1503,1602,1501,1502 
9,1601,1603,1803,1801,1602,1703,1802,1701,1702 
10,1801,1803,2003,2001,1802,1903,2002,1901,1902 
11,2001,2003,2203,2201,2002,2103,2202,2101,2102 
12,2201,2203,2403,2401,2202,2303,2402,2301,2302 
13,2401,2403,2603,2601,2402,2503,2602,2501,2502 
14,2601,2603,2803,2801,2602,2703,2802,2701,2702 
15,2801,2803,3003,3001,2802,2903,3002,2901,2902 
16,3001,3003,3203,3201,3002,3103,3202,3101,3102 
17,3201,3203,3403,3401,3202,3303,3402,3301,3302 
18,3401,3403,3603,3601,3402,3503,3602,3501,3502 
19,3601,3603,3803,3801,3602,3703,3802,3701,3702 
20,3801,3803,4003,4001,3802,3903,4002,3901,3902 
** ... 20 like lines cut
*SHELL SECTION, ELSET=STRIP1, MATERIAL=MAT100
0.060000 
*ELEMENT,TYPE=S9R5,ELSET=STRIP2
41,3,5,205,203,4,105,204,103,104 
42,203,205,405,403,204,305,404,303,304 
43,403,405,605,603,404,505,604,503,504 
44,603,605,805,803,604,705,804,703,704 
45,803,805,1005,1003,804,905,1004,903,904 
46,1003,1005,1205,1203,1004,1105,1204,1103,1104 
47,1203,1205,1405,1403,1204,1305,1404,1303,1304 
48,1403,1405,1605,1603,1404,1505,1604,1503,1504 
49,1603,1605,1805,1803,1604,1705,1804,1703,1704 
50,1803,1805,2005,2003,1804,1905,2004,1903,1904 
51,2003,2005,2205,2203,2004,2105,2204,2103,2104 
52,2203,2205,2405,2403,2204,2305,2404,2303,2304 
53,2403,2405,2605,2603,2404,2505,2604,2503,2504 
54,2603,2605,2805,2803,2604,2705,2804,2703,2704 
55,2803,2805,3005,3003,2804,2905,3004,2903,2904 
56,3003,3005,3205,3203,3004,3105,3204,3103,3104 
57,3203,3205,3405,3403,3204,3305,3404,3303,3304 
58,3403,3405,3605,3603,3404,3505,3604,3503,3504 
59,3603,3605,3805,3803,3604,3705,3804,3703,3704 
60,3803,3805,4005,4003,3804,3905,4004,3903,3904 
** ... 20 like lines cut
*SHELL SECTION, ELSET=STRIP2, MATERIAL=MAT100
0.060000 
*ELEMENT,TYPE=S9R5,ELSET=STRIP3
81,5,7,207,205,6,107,206,105,106 
82,205,207,407,405,206,307,406,305,306 
83,405,407,607,605,406,507,606,505,506 
84,605,607,807,805,606,707,806,705,706 
85,805,807,1007,1005,806,907,1006,905,906 
86,1005,1007,1207,1205,1006,1107,1206,1105,1106 
87,1205,1207,1407,1405,1206,1307,1406,1305,1306 
88,1405,1407,1607,1605,1406,1507,1606,1505,1506 
89,1605,1607,1807,1805,1606,1707,1806,1705,1706 
90,1805,1807,2007,2005,1806,1907,2006,1905,1906 
91,2005,2007,2207,2205,2006,2107,2206,2105,2106 
92,2205,2207,2407,2405,2206,2307,2406,2305,2306 
93,2405,2407,2607,2605,2406,2507,2606,2505,2506 
94,2605,2607,2807,2805,2606,2707,2806,2705,2706 
95,2805,2807,3007,3005,2806,2907,3006,2905,2906 
96,3005,3007,3207,3205,3006,3107,3206,3105,3106 
97,3205,3207,3407,3405,3206,3307,3406,3305,3306 
98,3405,3407,3607,3605,3406,3507,3606,3505,3506 
99,3605,3607,3807,3805,3606,3707,3806,3705,3706 
100,3805,3807,4007,4005,3806,3907,4006,3905,3906 
** ... 20 like lines cut
*SHELL SECTION, ELSET=STRIP3, MATERIAL=MAT100
0.060000 
*ELEMENT,TYPE=S9R5,ELSET=STRIP4
121,7,9,209,207,8,109,208,107,108 
122,207,209,409,407,208,309,408,307,308 
123,407,409,609,607,408,509,608,507,508 
124,607,609,809,807,608,709,808,707,708 
125,807,809,1009,1007,808,909,1008,907,908 
126,1007,1009,1209,1207,1008,1109,1208,1107,1108 
127,1207,1209,1409,1407,1208,1309,1408,1307,1308 
128,1407,1409,1609,1607,1408,1509,1608,1507,1508 
129,1607,1609,1809,1807,1608,1709,1808,1707,1708 
130,1807,1809,2009,2007,1808,1909,2008,1907,1908 
131,2007,2009,2209,2207,2008,2109,2208,2107,2108 
132,2207,2209,2409,2407,2208,2309,2408,2307,2308 
133,2407,2409,2609,2607,2408,2509,2608,2507,2508 
134,2607,2609,2809,2807,2608,2709,2808,2707,2708 
135,2807,2809,3009,3007,2808,2909,3008,2907,2908 
136,3007,3009,3209,3207,3008,3109,3208,3107,3108 
137,3207,3209,3409,3407,3208,3309,3408,3307,3308 
138,3407,3409,3609,3607,3408,3509,3608,3507,3508 
139,3607,3609,3809,3807,3608,3709,3808,3707,3708 
140,3807,3809,4009,4007,3808,3909,4008,3907,3908 
** ... 20 like lines cut
*SHELL SECTION, ELSET=STRIP4, MATERIAL=MAT100
0.060000 
*ELEMENT,TYPE=S9R5,ELSET=STRIP5
161,9,11,211,209,10,111,210,109,110 
162,209,211,411,409,210,311,410,309,310 
163,409,411,611,609,410,511,610,509,510 
164,609,611,811,809,610,711,810,709,710 
165,809,811,1011,1009,810,911,1010,909,910 
166,1009,1011,1211,1209,1010,1111,1210,1109,1110 
167,1209,1211,1411,1409,1210,1311,1410,1309,1310 
168,1409,1411,1611,1609,1410,1511,1610,1509,1510 
169,1609,1611,1811,1809,1610,1711,1810,1709,1710 
170,1809,1811,2011,2009,1810,1911,2010,1909,1910 
171,2009,2011,2211,2209,2010,2111,2210,2109,2110 
172,2209,2211,2411,2409,2210,2311,2410,2309,2310 
173,2409,2411,2611,2609,2410,2511,2610,2509,2510 
174,2609,2611,2811,2809,2610,2711,2810,2709,2710 
175,2809,2811,3011,3009,2810,2911,3010,2909,2910 
176,3009,3011,3211,3209,3010,3111,3210,3109,3110 
177,3209,3211,3411,3409,3210,3311,3410,3309,3310 
178,3409,3411,3611,3609,3410,3511,3610,3509,3510 
179,3609,3611,3811,3809,3610,3711,3810,3709,3710 
180,3809,3811,4011,4009,3810,3911,4010,3909,3910 
** ... 20 like lines cut
*SHELL SECTION, ELSET=STRIP5, MATERIAL=MAT100
0.060000 
*ELEMENT,TYPE=S9R5,ELSET=STRIP6
201,11,13,213,211,12,113,212,111,112 
202,211,213,413,411,212,313,412,311,312 
203,411,413,613,611,412,513,612,511,512 
204,611,613,813,811,612,713,812,711,712 
205,811,813,1013,1011,812,913,1012,911,912 
206,1011,1013,1213,1211,1012,1113,1212,1111,1112 
207,1211,1213,1413,1411,1212,1313,1412,1311,1312 
208,1411,1413,1613,1611,1412,1513,1612,1511,1512 
209,1611,1613,1813,1811,1612,1713,1812,1711,1712 
210,1811,1813,2013,2011,1812,1913,2012,1911,1912 
211,2011,2013,2213,2211,2012,2113,2212,2111,2112 
212,2211,2213,2413,2411,2212,2313,2412,2311,2312 
213,2411,2413,2613,2611,2412,2513,2612,2511,2512 
214,2611,2613,2813,2811,2612,2713,2812,2711,2712 
215,2811,2813,3013,3011,2812,2913,3012,2911,2912 
216,3011,3013,3213,3211,3012,3113,3212,3111,3112 
217,3211,3213,3413,3411,3212,3313,3412,3311,3312 
218,3411,3413,3613,3611,3412,3513,3612,3511,3512 
219,3611,3613,3813,3811,3612,3713,3812,3711,3712 
220,3811,3813,4013,4011,3812,3913,4012,3911,3912 
** ... 20 like lines cut
*SHELL SECTION, ELSET=STRIP6, MATERIAL=MAT100
0.060000 
*ELEMENT,TYPE=S9R5,ELSET=STRIP7
241,13,15,215,213,14,115,214,113,114 
242,213,215,415,413,214,315,414,313,314 
243,413,415,615,613,414,515,614,513,514 
244,613,615,815,813,614,715,814,713,714 
245,813,815,1015,1013,814,915,1014,913,914 
246,1013,1015,1215,1213,1014,1115,1214,1113,1114 
247,1213,1215,1415,1413,1214,1315,1414,1313,1314 
248,1413,1415,1615,1613,1414,1515,1614,1513,1514 
249,1613,1615,1815,1813,1614,1715,1814,1713,1714 
250,1813,1815,2015,2013,1814,1915,2014,1913,1914 
251,2013,2015,2215,2213,2014,2115,2214,2113,2114 
252,2213,2215,2415,2413,2214,2315,2414,2313,2314 
253,2413,2415,2615,2613,2414,2515,2614,2513,2514 
254,2613,2615,2815,2813,2614,2715,2814,2713,2714 
255,2813,2815,3015,3013,2814,2915,3014,2913,2914 
256,3013,3015,3215,3213,3014,3115,3214,3113,3114 
257,3213,3215,3415,3413,3214,3315,3414,3313,3314 
258,3413,3415,3615,3613,3414,3515,3614,3513,3514 
259,3613,3615,3815,3813,3614,3715,3814,3713,3714 
260,3813,3815,4015,4013,3814,3915,4014,3913,3914 
** ... 20 like lines cut
*SHELL SECTION, ELSET=STRIP7, MATERIAL=MAT100
0.060000 
*ELEMENT,TYPE=S9R5,ELSET=STRIP8
281,15,17,217,215,16,117,216,115,116 
282,215,217,417,415,216,317,416,315,316 
283,415,417,617,615,416,517,616,515,516 
284,615,617,817,815,616,717,816,715,716 
285,815,817,1017,1015,816,917,1016,915,916 
286,1015,1017,1217,1215,1016,1117,1216,1115,1116 
287,1215,1217,1417,1415,1216,1317,1416,1315,1316 
288,1415,1417,1617,1615,1416,1517,1616,1515,1516 
289,1615,1617,1817,1815,1616,1717,1816,1715,1716 
290,1815,1817,2017,2015,1816,1917,2016,1915,1916 
291,2015,2017,2217,2215,2016,2117,2216,2115,2116 
292,2215,2217,2417,2415,2216,2317,2416,2315,2316 
293,2415,2417,2617,2615,2416,2517,2616,2515,2516 
294,2615,2617,2817,2815,2616,2717,2816,2715,2716 
295,2815,2817,3017,3015,2816,2917,3016,2915,2916 
296,3015,3017,3217,3215,3016,3117,3216,3115,3116 
297,3215,3217,3417,3415,3216,3317,3416,3315,3316 
298,3415,3417,3617,3615,3416,3517,3616,3515,3516 
299,3615,3617,3817,3815,3616,3717,3816,3715,3716 
300,3815,3817,4017,4015,3816,3917,4016,3915,3916 
** ... 20 like lines cut
*SHELL SECTION, ELSET=STRIP8, MATERIAL=MAT100
0.060000 
*ELEMENT,TYPE=S9R5,ELSET=STRIP9
321,17,19,219,217,18,119,218,117,118 
322,217,219,419,417,218,319,418,317,318 
323,417,419,619,617,418,519,618,517,518 
324,617,619,819,817,618,719,818,717,718 
325,817,819,1019,1017,818,919,1018,917,918 
326,1017,1019,1219,1217,1018,1119,1218,1117,1118 
327,1217,1219,1419,1417,1218,1319,1418,1317,1318 
328,1417,1419,1619,1617,1418,1519,1618,1517,1518 
329,1617,1619,1819,1817,1618,1719,1818,1717,1718 
330,1817,1819,2019,2017,1818,1919,2018,1917,1918 
331,2017,2019,2219,2217,2018,2119,2218,2117,2118 
332,2217,2219,2419,2417,2218,2319,2418,2317,2318 
333,2417,2419,2619,2617,2418,2519,2618,2517,2518 
334,2617,2619,2819,2817,2618,2719,2818,2717,2718 
335,2817,2819,3019,3017,2818,2919,3018,2917,2918 
336,3017,3019,3219,3217,3018,3119,3218,3117,3118 
337,3217,3219,3419,3417,3218,3319,3418,3317,3318 
338,3417,3419,3619,3617,3418,3519,3618,3517,3518 
339,3617,3619,3819,3817,3618,3719,3818,3717,3718 
340,3817,3819,4019,4017,3818,3919,4018,3917,3918 
** ... 20 like lines cut
*SHELL SECTION, ELSET=STRIP9, MATERIAL=MAT100
0.060000 
*ELEMENT,TYPE=S9R5,ELSET=STRIP10
361,19,21,221,219,20,121,220,119,120 
362,219,221,421,419,220,321,420,319,320 
363,419,421,621,619,420,521,620,519,520 
364,619,621,821,819,620,721,820,719,720 
365,819,821,1021,1019,820,921,1020,919,920 
366,1019,1021,1221,1219,1020,1121,1220,1119,1120 
367,1219,1221,1421,1419,1220,1321,1420,1319,1320 
368,1419,1421,1621,1619,1420,1521,1620,1519,1520 
369,1619,1621,1821,1819,1620,1721,1820,1719,1720 
370,1819,1821,2021,2019,1820,1921,2020,1919,1920 
371,2019,2021,2221,2219,2020,2121,2220,2119,2120 
372,2219,2221,2421,2419,2220,2321,2420,2319,2320 
373,2419,2421,2621,2619,2420,2521,2620,2519,2520 
374,2619,2621,2821,2819,2620,2721,2820,2719,2720 
375,2819,2821,3021,3019,2820,2921,3020,2919,2920 
376,3019,3021,3221,3219,3020,3121,3220,3119,3120 
377,3219,3221,3421,3419,3220,3321,3420,3319,3320 
378,3419,3421,3621,3619,3420,3521,3620,3519,3520 
379,3619,3621,3821,3819,3620,3721,3820,3719,3720 
380,3819,3821,4021,4019,3820,3921,4020,3919,3920 
** ... 20 like lines cut
*SHELL SECTION, ELSET=STRIP10, MATERIAL=MAT100
0.060000 
*ELEMENT,TYPE=S9R5,ELSET=STRIP11
401,21,23,223,221,22,123,222,121,122 
402,221,223,423,421,222,323,422,321,322 
403,421,423,623,621,422,523,622,521,522 
404,621,623,823,821,622,723,822,721,722 
405,821,823,1023,1021,822,923,1022,921,922 
406,1021,1023,1223,1221,1022,1123,1222,1121,1122 
407,1221,1223,1423,1421,1222,1323,1422,1321,1322 
408,1421,1423,1623,1621,1422,1523,1622,1521,1522 
409,1621,1623,1823,1821,1622,1723,1822,1721,1722 
410,1821,1823,2023,2021,1822,1923,2022,1921,1922 
411,2021,2023,2223,2221,2022,2123,2222,2121,2122 
412,2221,2223,2423,2421,2222,2323,2422,2321,2322 
413,2421,2423,2623,2621,2422,2523,2622,2521,2522 
414,2621,2623,2823,2821,2622,2723,2822,2721,2722 
415,2821,2823,3023,3021,2822,2923,3022,2921,2922 
416,3021,3023,3223,3221,3022,3123,3222,3121,3122 
417,3221,3223,3423,3421,3222,3323,3422,3321,3322 
418,3421,3423,3623,3621,3422,3523,3622,3521,3522 
419,3621,3623,3823,3821,3622,3723,3822,3721,3722 
420,3821,3823,4023,4021,3822,3923,4022,3921,3922 
** ... 20 like lines cut
*SHELL SECTION, ELSET=STRIP11, MATERIAL=MAT100
0.060000 
*ELEMENT,TYPE=S9R5,ELSET=STRIP12
441,23,25,225,223,24,125,224,123,124 
442,223,225,425,423,224,325,424,323,324 
443,423,425,625,623,424,525,624,523,524 
444,623,625,825,823,624,725,824,723,724 
445,823,825,1025,1023,824,925,1024,923,924 
446,1023,1025,1225,1223,1024,1125,1224,1123,1124 
447,1223,1225,1425,1423,1224,1325,1424,1323,1324 
448,1423,1425,1625,1623,1424,1525,1624,1523,1524 
449,1623,1625,1825,1823,1624,1725,1824,1723,1724 
450,1823,1825,2025,2023,1824,1925,2024,1923,1924 
451,2023,2025,2225,2223,2024,2125,2224,2123,2124 
452,2223,2225,2425,2423,2224,2325,2424,2323,2324 
453,2423,2425,2625,2623,2424,2525,2624,2523,2524 
454,2623,2625,2825,2823,2624,2725,2824,2723,2724 
455,2823,2825,3025,3023,2824,2925,3024,2923,2924 
456,3023,3025,3225,3223,3024,3125,3224,3123,3124 
457,3223,3225,3425,3423,3224,3325,3424,3323,3324 
458,3423,3425,3625,3623,3424,3525,3624,3523,3524 
459,3623,3625,3825,3823,3624,3725,3824,3723,3724 
460,3823,3825,4025,4023,3824,3925,4024,3923,3924 
** ... 20 like lines cut
*SHELL SECTION, ELSET=STRIP12, MATERIAL=MAT100
0.060000 
*ELEMENT,TYPE=S9R5,ELSET=STRIP13
481,25,27,227,225,26,127,226,125,126 
482,225,227,427,425,226,327,426,325,326 
483,425,427,627,625,426,527,626,525,526 
484,625,627,827,825,626,727,826,725,726 
485,825,827,1027,1025,826,927,1026,925,926 
486,1025,1027,1227,1225,1026,1127,1226,1125,1126 
487,1225,1227,1427,1425,1226,1327,1426,1325,1326 
488,1425,1427,1627,1625,1426,1527,1626,1525,1526 
489,1625,1627,1827,1825,1626,1727,1826,1725,1726 
490,1825,1827,2027,2025,1826,1927,2026,1925,1926 
491,2025,2027,2227,2225,2026,2127,2226,2125,2126 
492,2225,2227,2427,2425,2226,2327,2426,2325,2326 
493,2425,2427,2627,2625,2426,2527,2626,2525,2526 
494,2625,2627,2827,2825,2626,2727,2826,2725,2726 
495,2825,2827,3027,3025,2826,2927,3026,2925,2926 
496,3025,3027,3227,3225,3026,3127,3226,3125,3126 
497,3225,3227,3427,3425,3226,3327,3426,3325,3326 
498,3425,3427,3627,3625,3426,3527,3626,3525,3526 
499,3625,3627,3827,3825,3626,3727,3826,3725,3726 
500,3825,3827,4027,4025,3826,3927,4026,3925,3926 
** ... 20 like lines cut
*SHELL SECTION, ELSET=STRIP13, MATERIAL=MAT100
0.060000 
*ELEMENT,TYPE=S9R5,ELSET=STRIP14
521,27,29,229,227,28,129,228,127,128 
522,227,229,429,427,228,329,428,327,328 
523,427,429,629,627,428,529,628,527,528 
524,627,629,829,827,628,729,828,727,728 
525,827,829,1029,1027,828,929,1028,927,928 
526,1027,1029,1229,1227,1028,1129,1228,1127,1128 
527,1227,1229,1429,1427,1228,1329,1428,1327,1328 
528,1427,1429,1629,1627,1428,1529,1628,1527,1528 
529,1627,1629,1829,1827,1628,1729,1828,1727,1728 
530,1827,1829,2029,2027,1828,1929,2028,1927,1928 
531,2027,2029,2229,2227,2028,2129,2228,2127,2128 
532,2227,2229,2429,2427,2228,2329,2428,2327,2328 
533,2427,2429,2629,2627,2428,2529,2628,2527,2528 
534,2627,2629,2829,2827,2628,2729,2828,2727,2728 
535,2827,2829,3029,3027,2828,2929,3028,2927,2928 
536,3027,3029,3229,3227,3028,3129,3228,3127,3128 
537,3227,3229,3429,3427,3228,3329,3428,3327,3328 
538,3427,3429,3629,3627,3428,3529,3628,3527,3528 
539,3627,3629,3829,3827,3628,3729,3828,3727,3728 
540,3827,3829,4029,4027,3828,3929,4028,3927,3928 
** ... 20 like lines cut
*SHELL SECTION, ELSET=STRIP14, MATERIAL=MAT100
0.060000 
*ELEMENT,TYPE=S9R5,ELSET=STRIP15
561,29,31,231,229,30,131,230,129,130 
562,229,231,431,429,230,331,430,329,330 
563,429,431,631,629,430,531,630,529,530 
564,629,631,831,829,630,731,830,729,730 
565,829,831,1031,1029,830,931,1030,929,930 
566,1029,1031,1231,1229,1030,1131,1230,1129,1130 
567,1229,1231,1431,1429,1230,1331,1430,1329,1330 
568,1429,1431,1631,1629,1430,1531,1630,1529,1530 
569,1629,1631,1831,1829,1630,1731,1830,1729,1730 
570,1829,1831,2031,2029,1830,1931,2030,1929,1930 
571,2029,2031,2231,2229,2030,2131,2230,2129,2130 
572,2229,2231,2431,2429,2230,2331,2430,2329,2330 
573,2429,2431,2631,2629,2430,2531,2630,2529,2530 
574,2629,2631,2831,2829,2630,2731,2830,2729,2730 
575,2829,2831,3031,3029,2830,2931,3030,2929,2930 
576,3029,3031,3231,3229,3030,3131,3230,3129,3130 
577,3229,3231,3431,3429,3230,3331,3430,3329,3330 
578,3429,3431,3631,3629,3430,3531,3630,3529,3530 
579,3629,3631,3831,3829,3630,3731,3830,3729,3730 
580,3829,3831,4031,4029,3830,3931,4030,3929,3930 
** ... 20 like lines cut
*SHELL SECTION, ELSET=STRIP15, MATERIAL=MAT100
0.060000 
*ELEMENT,TYPE=S9R5,ELSET=STRIP16
601,31,33,233,231,32,133,232,131,132 
602,231,233,433,431,232,333,432,331,332 
603,431,433,633,631,432,533,632,531,532 
604,631,633,833,831,632,733,832,731,732 
605,831,833,1033,1031,832,933,1032,931,932 
606,1031,1033,1233,1231,1032,1133,1232,1131,1132 
607,1231,1233,1433,1431,1232,1333,1432,1331,1332 
608,1431,1433,1633,1631,1432,1533,1632,1531,1532 
609,1631,1633,1833,1831,1632,1733,1832,1731,1732 
610,1831,1833,2033,2031,1832,1933,2032,1931,1932 
611,2031,2033,2233,2231,2032,2133,2232,2131,2132 
612,2231,2233,2433,2431,2232,2333,2432,2331,2332 
613,2431,2433,2633,2631,2432,2533,2632,2531,2532 
614,2631,2633,2833,2831,2632,2733,2832,2731,2732 
615,2831,2833,3033,3031,2832,2933,3032,2931,2932 
616,3031,3033,3233,3231,3032,3133,3232,3131,3132 
617,3231,3233,3433,3431,3232,3333,3432,3331,3332 
618,3431,3433,3633,3631,3432,3533,3632,3531,3532 
619,3631,3633,3833,3831,3632,3733,3832,3731,3732 
620,3831,3833,4033,4031,3832,3933,4032,3931,3932 
** ... 20 like lines cut
*SHELL SECTION, ELSET=STRIP16, MATERIAL=MAT100
0.060000 
*ELEMENT,TYPE=S9R5,ELSET=STRIP17
641,33,35,235,233,34,135,234,133,134 
642,233,235,435,433,234,335,434,333,334 
643,433,435,635,633,434,535,634,533,534 
644,633,635,835,833,634,735,834,733,734 
645,833,835,1035,1033,834,935,1034,933,934 
646,1033,1035,1235,1233,1034,1135,1234,1133,1134 
647,1233,1235,1435,1433,1234,1335,1434,1333,1334 
648,1433,1435,1635,1633,1434,1535,1634,1533,1534 
649,1633,1635,1835,1833,1634,1735,1834,1733,1734 
650,1833,1835,2035,2033,1834,1935,2034,1933,1934 
651,2033,2035,2235,2233,2034,2135,2234,2133,2134 
652,2233,2235,2435,2433,2234,2335,2434,2333,2334 
653,2433,2435,2635,2633,2434,2535,2634,2533,2534 
654,2633,2635,2835,2833,2634,2735,2834,2733,2734 
655,2833,2835,3035,3033,2834,2935,3034,2933,2934 
656,3033,3035,3235,3233,3034,3135,3234,3133,3134 
657,3233,3235,3435,3433,3234,3335,3434,3333,3334 
658,3433,3435,3635,3633,3434,3535,3634,3533,3534 
659,3633,3635,3835,3833,3634,3735,3834,3733,3734 
660,3833,3835,4035,4033,3834,3935,4034,3933,3934 
** ... 20 like lines cut
*SHELL SECTION, ELSET=STRIP17, MATERIAL=MAT100
0.060000 
*ELEMENT,TYPE=S9R5,ELSET=STRIP18
681,35,37,237,235,36,137,236,135,136 
682,235,237,437,435,236,337,436,335,336 
683,435,437,637,635,436,537,636,535,536 
684,635,637,837,835,636,737,836,735,736 
685,835,837,1037,1035,836,937,1036,935,936 
686,1035,1037,1237,1235,1036,1137,1236,1135,1136 
687,1235,1237,1437,1435,1236,1337,1436,1335,1336 
688,1435,1437,1637,1635,1436,1537,1636,1535,1536 
689,1635,1637,1837,1835,1636,1737,1836,1735,1736 
690,1835,1837,2037,2035,1836,1937,2036,1935,1936 
691,2035,2037,2237,2235,2036,2137,2236,2135,2136 
692,2235,2237,2437,2435,2236,2337,2436,2335,2336 
693,2435,2437,2637,2635,2436,2537,2636,2535,2536 
694,2635,2637,2837,2835,2636,2737,2836,2735,2736 
695,2835,2837,3037,3035,2836,2937,3036,2935,2936 
696,3035,3037,3237,3235,3036,3137,3236,3135,3136 
697,3235,3237,3437,3435,3236,3337,3436,3335,3336 
698,3435,3437,3637,3635,3436,3537,3636,3535,3536 
699,3635,3637,3837,3835,3636,3737,3836,3735,3736 
700,3835,3837,4037,4035,3836,3937,4036,3935,3936 
** ... 20 like lines cut
*SHELL SECTION, ELSET=STRIP18, MATERIAL=MAT100
0.060000 
*MATERIAL, NAME=MAT100
*ELASTIC, TYPE=ISOTROPIC
29500.000000,0.300000 
*NSET, NSET=END1
1
2
3
4
5
6
7
8
9
10
11
12
13
14
15
16
17
18
19
20
** ... 17 like lines cut
*NSET, NSET=END2
8001
8002
8003
8004
8005
8006
8007
8008
8009
8010
8011
8012
8013
8014
8015
8016
8017
8018
8019
8020
** ... 17 like lines cut
*NSET, NSET=MIDDLE
4001
4002
4003
4004
4005
4006
4007
4008
4009
4010
4011
4012
4013
4014
4015
4016
4017
4018
4019
4020
** ... 17 like lines cut
*BOUNDARY
END1,2,3
END2,2,3
MIDDLE,1,1
*STEP
*STATIC
0.1
*CLOAD
1,1,0.002500
2,1,0.010000
3,1,0.005000
4,1,0.010000
5,1,0.004431
6,1,0.007725
7,1,0.003863
8,1,0.007725
9,1,0.011931
10,1,0.040000
11,1,0.020000
12,1,0.040000
13,1,0.011931
14,1,0.007725
15,1,0.003863
16,1,0.007725
17,1,0.031931
18,1,0.120000
19,1,0.060000
20,1,0.120000
** ... 54 like lines cut
*OUTPUT, FIELD
*ELEMENT OUTPUT
1,3,5
S,E
*NODE OUTPUT
U
*END STEP
